**********************************************************
* MODEL: CPM-DCM
* Current-Programmed-Mode controller model.
* Computes duty ratio based on averaged inductor
* current, voltages applied to the inductor, and amplitude
* of the artificial ramp. The CPM controller model
* is valid for CCM and DCM operation of the power
* converter. All parameters and inputs are referred to
* the primary side.
*
* Limitation: does not include sampling effects
* or preditions of period-doubling instability
*
**********************************************************
* Parameters:
*     L=equivalent inductance, referred to primary
*     fs=switching frequency
*     Va=amplitude of the artificial ramp, Va=Rf*ma/fs
*     Rf=equivalent current-sense resistance
**********************************************************
* Nodes:
* vc: control input, vc=Rf*ic
* vs: sensed average inductor current vs=Rf*iL
* vm1: voltage across L in interval 1, slope m1=vm1/L
* vm2: (-) voltage across L in interval 2, slope m2=vm2/L
* d: duty cycle (output of the CPM controller)
**********************************************************
.subckt CPM-DCM vc vs vm1 vm2 d
+params: L=100e-6 fs=1e5 Va=0.5 Rf=1
* generate inductor current slopes, see Eqs.(B.24) and (B.26)
Em1 m1 0 value={Rf*v(vm1)/L/fs}
* compute duty cycle d, this is a replacement for Eq.(B.32)
Eduty d 0 table
+ {
+ v(vc)/(v(m1)+Va)
+ } (0.01,0.01) (0.99,0.99)
*
.ends ; end of subcircuit CPM-DCM
**********************************************************
