Version 4
SHEET 1 1436 900
WIRE 128 48 16 48
WIRE 352 48 208 48
WIRE 608 48 352 48
WIRE 1072 48 848 48
WIRE 1360 48 1072 48
WIRE 16 144 16 48
WIRE 1072 160 1072 48
WIRE 1360 160 1360 48
WIRE 352 176 352 48
WIRE 432 176 352 176
WIRE 848 176 848 48
WIRE 848 176 560 176
WIRE 432 224 384 224
WIRE 608 224 608 48
WIRE 608 224 560 224
WIRE 16 416 16 224
WIRE 384 416 384 224
WIRE 384 416 16 416
WIRE 544 416 384 416
WIRE 1072 416 1072 224
WIRE 1072 416 544 416
WIRE 1360 416 1360 240
WIRE 1360 416 1072 416
WIRE 544 448 544 416
WIRE 320 736 208 736
WIRE 496 736 496 240
WIRE 624 736 496 736
WIRE 624 880 624 816
FLAG 544 448 0
FLAG 624 880 0
SYMBOL voltage 16 128 R0
WINDOW 123 0 0 Left 0
WINDOW 39 0 0 Left 0
SYMATTR InstName Vg
SYMATTR Value 5
SYMBOL cap 1056 160 R0
SYMATTR InstName C1
SYMATTR Value 330n
SYMBOL res 1344 144 R0
SYMATTR InstName R1
SYMATTR Value 15k
SYMBOL PWM 384 736 M0
SYMATTR InstName U1
SYMATTR SpiceLine VM=1V, fs=43535
SYMBOL voltage 624 720 R0
WINDOW 123 24 124 Left 2
WINDOW 39 0 0 Left 0
SYMATTR InstName V2
SYMATTR Value .418
SYMATTR Value2 AC 1
SYMBOL ccm-dcm1 496 208 R0
SYMATTR SpiceLine L=15u fs=100k
SYMATTR InstName U2
SYMBOL ind 112 64 R270
WINDOW 0 32 56 VTop 2
WINDOW 3 5 56 VBottom 2
SYMATTR InstName L1
SYMATTR Value 15µ
TEXT -16 616 Left 2 !;tran 20m
TEXT 24 -40 Left 2 !.lib switching.lib
TEXT 24 -8 Left 2 !.lib average.lib
TEXT -16 656 Left 2 !.ac dec 300 10 1Meg
