Version 4
SHEET 1 1744 728
WIRE -432 -272 -1088 -272
WIRE -1088 -144 -1088 -272
WIRE -928 -144 -1088 -144
WIRE -848 -144 -928 -144
WIRE -656 -144 -768 -144
WIRE -544 -144 -656 -144
WIRE 448 -144 -544 -144
WIRE 656 -144 528 -144
WIRE 816 -144 656 -144
WIRE 976 -144 816 -144
WIRE 1136 -144 1040 -144
WIRE 1344 -144 1136 -144
WIRE 1488 -144 1344 -144
WIRE 1632 -144 1488 -144
WIRE -928 -48 -928 -144
WIRE -656 -48 -656 -144
WIRE 816 -48 816 -144
WIRE 1136 -48 1136 -144
WIRE -432 48 -432 -272
WIRE 656 80 656 -144
WIRE -1088 96 -1088 -144
WIRE 1488 144 1488 -144
WIRE -928 160 -928 32
WIRE -656 160 -656 32
WIRE -432 160 -432 128
WIRE -336 160 -432 160
WIRE 144 160 -336 160
WIRE 608 160 320 160
WIRE 1344 160 1344 -144
WIRE -544 176 -544 -144
WIRE 144 192 -96 192
WIRE 1136 192 1136 32
WIRE 1136 192 320 192
WIRE -96 224 -96 192
WIRE 144 224 32 224
WIRE 512 224 320 224
WIRE 656 224 656 176
WIRE 656 224 512 224
WIRE -432 256 -432 160
WIRE -336 256 -336 160
WIRE 144 256 112 256
WIRE 352 256 320 256
WIRE 656 256 656 224
WIRE 32 272 32 224
WIRE 1136 272 1136 192
WIRE 512 288 512 224
WIRE -96 320 -96 288
WIRE -1088 416 -1088 176
WIRE -928 416 -928 224
WIRE -928 416 -1088 416
WIRE -656 416 -656 224
WIRE -656 416 -928 416
WIRE -544 416 -544 240
WIRE -544 416 -656 416
WIRE -432 416 -432 320
WIRE -432 416 -544 416
WIRE -336 416 -336 320
WIRE -336 416 -432 416
WIRE -96 416 -96 400
WIRE -96 416 -336 416
WIRE 32 416 32 352
WIRE 32 416 -96 416
WIRE 112 416 112 256
WIRE 112 416 32 416
WIRE 352 416 352 256
WIRE 352 416 112 416
WIRE 512 416 512 352
WIRE 512 416 352 416
WIRE 656 416 656 336
WIRE 656 416 512 416
WIRE 816 416 816 16
WIRE 816 416 656 416
WIRE 1136 416 1136 352
WIRE 1136 416 816 416
WIRE 1344 416 1344 224
WIRE 1344 416 1136 416
WIRE 1488 416 1488 224
WIRE 1488 416 1344 416
WIRE 656 496 656 416
FLAG 656 496 0
FLAG 1632 -144 Vout
IOPIN 1632 -144 Out
SYMBOL voltage -1088 80 R0
WINDOW 123 0 0 Left 2
WINDOW 39 24 124 Left 2
SYMATTR SpiceLine Rser=30m
SYMATTR InstName Vin
SYMATTR Value 5
SYMBOL ind 432 -128 R270
WINDOW 0 32 56 VTop 2
WINDOW 3 5 56 VBottom 2
SYMATTR InstName L1
SYMATTR Value 15µ
SYMATTR SpiceLine Rser=90m
SYMBOL cap -560 176 R0
SYMATTR InstName C1
SYMATTR Value 10µ
SYMBOL cap 1328 160 R0
SYMATTR InstName C2
SYMATTR Value 100n
SYMATTR SpiceLine Rser=20m
SYMBOL diode 976 -128 R270
WINDOW 0 32 32 VTop 2
WINDOW 3 0 32 VBottom 2
SYMATTR InstName D1
SYMATTR Value STPS2200UF
SYMBOL LM3478_TRANS 224 208 R0
SYMATTR InstName U1
SYMBOL res -448 32 R0
SYMATTR InstName R1
SYMATTR Value 20
SYMBOL cap -448 256 R0
SYMATTR InstName C4
SYMATTR Value 100n
SYMBOL res 16 256 R0
SYMATTR InstName R9
SYMATTR Value 226k
SYMBOL res 640 240 R0
SYMATTR InstName R4
SYMATTR Value 82m
SYMBOL res 1120 -64 R0
SYMATTR InstName R2
SYMATTR Value 1.5Meg
SYMBOL res 1120 256 R0
SYMATTR InstName R5
SYMATTR Value 12.7k
SYMBOL cap -112 224 R0
SYMATTR InstName C3
SYMATTR Value 4.7n
SYMBOL res -112 304 R0
SYMATTR InstName R6
SYMATTR Value 11k
SYMBOL res 1472 128 R0
SYMATTR InstName Rload
SYMATTR Value 10k
SYMBOL nmos 608 80 R0
SYMATTR InstName M1
SYMATTR Value BSC12DN20NS3_L0
SYMATTR Prefix X
SYMBOL cap 496 288 R0
SYMATTR InstName C5
SYMATTR Value 100n
SYMBOL ind -864 -128 R270
WINDOW 0 32 56 VTop 2
WINDOW 3 5 56 VBottom 2
SYMATTR InstName L2
SYMATTR Value 10µ
SYMATTR SpiceLine Rser=50m
SYMBOL res -944 -64 R0
SYMATTR InstName R3
SYMATTR Value 500m
SYMBOL res -672 -64 R0
SYMATTR InstName R7
SYMATTR Value 200m
SYMBOL cap -944 160 R0
SYMATTR InstName C6
SYMATTR Value 22µ
SYMATTR SpiceLine Rser=100m
SYMBOL cap -672 160 R0
SYMATTR InstName C7
SYMATTR Value 100µ
SYMATTR SpiceLine Rser=45m
SYMBOL cap -352 256 R0
SYMATTR InstName C8
SYMATTR Value 1µ
SYMBOL cap 800 -48 R0
SYMATTR InstName C10
SYMATTR Value 470p
TEXT 80 520 Left 2 !.tran 10m
TEXT 88 624 Left 2 !.include ST_POWER_SCHOTTKY_V6.mdl
TEXT 80 552 Left 2 !.lib OptiMOS3_200V.lib
